324
Lattice="19.191000000000003 0.0 0.0 0.0 19.191000000000003 0.0 0.0 0.0 19.191000000000003" Properties=species:S:1:pos:R:3 pbc="T T T"
C        3.19850000       3.70492338       3.19850000
N        4.36467523       3.10696542       3.19850000
N        2.03232477       3.10696542       3.19850000
H        3.19850000       4.79737454       3.19850000
H        5.19644941       3.69304494       3.19850000
H        1.20055059       3.69304494       3.19850000
H        4.49093574       2.09481327       3.19850000
H        1.90606426       2.09481327       3.19850000
Pb       0.00000000      19.17796778       0.00000000
I        3.19850000       0.05750307       0.00000000
I        0.00000000       3.16993732       0.00000000
I        0.00000000      19.05538881       3.19850000
C        3.19850000       3.70492338       9.59550000
N        4.36467523       3.10696542       9.59550000
N        2.03232477       3.10696542       9.59550000
H        3.19850000       4.79737454       9.59550000
H        5.19644941       3.69304494       9.59550000
H        1.20055059       3.69304494       9.59550000
H        4.49093574       2.09481327       9.59550000
H        1.90606426       2.09481327       9.59550000
Pb       0.00000000      19.17796778       6.39700000
I        3.19850000       0.05750307       6.39700000
I        0.00000000       3.16993732       6.39700000
I        0.00000000      19.05538881       9.59550000
C        3.19850000       3.70492338      15.99250000
N        4.36467523       3.10696542      15.99250000
N        2.03232477       3.10696542      15.99250000
H        3.19850000       4.79737454      15.99250000
H        5.19644941       3.69304494      15.99250000
H        1.20055059       3.69304494      15.99250000
H        4.49093574       2.09481327      15.99250000
H        1.90606426       2.09481327      15.99250000
Pb       0.00000000      19.17796778      12.79400000
I        3.19850000       0.05750307      12.79400000
I        0.00000000       3.16993732      12.79400000
I        0.00000000      19.05538881      15.99250000
C        3.19850000      10.10192338       3.19850000
N        4.36467523       9.50396542       3.19850000
N        2.03232477       9.50396542       3.19850000
H        3.19850000      11.19437454       3.19850000
H        5.19644941      10.09004494       3.19850000
H        1.20055059      10.09004494       3.19850000
H        4.49093574       8.49181327       3.19850000
H        1.90606426       8.49181327       3.19850000
Pb       0.00000000       6.38396778       0.00000000
I        3.19850000       6.45450307       0.00000000
I        0.00000000       9.56693732       0.00000000
I        0.00000000       6.26138881       3.19850000
C        3.19850000      10.10192338       9.59550000
N        4.36467523       9.50396542       9.59550000
N        2.03232477       9.50396542       9.59550000
H        3.19850000      11.19437454       9.59550000
H        5.19644941      10.09004494       9.59550000
H        1.20055059      10.09004494       9.59550000
H        4.49093574       8.49181327       9.59550000
H        1.90606426       8.49181327       9.59550000
Pb       0.00000000       6.38396778       6.39700000
I        3.19850000       6.45450307       6.39700000
I        0.00000000       9.56693732       6.39700000
I        0.00000000       6.26138881       9.59550000
C        3.19850000      10.10192338      15.99250000
N        4.36467523       9.50396542      15.99250000
N        2.03232477       9.50396542      15.99250000
H        3.19850000      11.19437454      15.99250000
H        5.19644941      10.09004494      15.99250000
H        1.20055059      10.09004494      15.99250000
H        4.49093574       8.49181327      15.99250000
H        1.90606426       8.49181327      15.99250000
Pb       0.00000000       6.38396778      12.79400000
I        3.19850000       6.45450307      12.79400000
I        0.00000000       9.56693732      12.79400000
I        0.00000000       6.26138881      15.99250000
C        3.19850000      16.49892338       3.19850000
N        4.36467523      15.90096542       3.19850000
N        2.03232477      15.90096542       3.19850000
H        3.19850000      17.59137454       3.19850000
H        5.19644941      16.48704494       3.19850000
H        1.20055059      16.48704494       3.19850000
H        4.49093574      14.88881327       3.19850000
H        1.90606426      14.88881327       3.19850000
Pb       0.00000000      12.78096778       0.00000000
I        3.19850000      12.85150307       0.00000000
I        0.00000000      15.96393732       0.00000000
I        0.00000000      12.65838881       3.19850000
C        3.19850000      16.49892338       9.59550000
N        4.36467523      15.90096542       9.59550000
N        2.03232477      15.90096542       9.59550000
H        3.19850000      17.59137454       9.59550000
H        5.19644941      16.48704494       9.59550000
H        1.20055059      16.48704494       9.59550000
H        4.49093574      14.88881327       9.59550000
H        1.90606426      14.88881327       9.59550000
Pb       0.00000000      12.78096778       6.39700000
I        3.19850000      12.85150307       6.39700000
I        0.00000000      15.96393732       6.39700000
I        0.00000000      12.65838881       9.59550000
C        3.19850000      16.49892338      15.99250000
N        4.36467523      15.90096542      15.99250000
N        2.03232477      15.90096542      15.99250000
H        3.19850000      17.59137454      15.99250000
H        5.19644941      16.48704494      15.99250000
H        1.20055059      16.48704494      15.99250000
H        4.49093574      14.88881327      15.99250000
H        1.90606426      14.88881327      15.99250000
Pb       0.00000000      12.78096778      12.79400000
I        3.19850000      12.85150307      12.79400000
I        0.00000000      15.96393732      12.79400000
I        0.00000000      12.65838881      15.99250000
C        9.59550000       3.70492338       3.19850000
N       10.76167523       3.10696542       3.19850000
N        8.42932477       3.10696542       3.19850000
H        9.59550000       4.79737454       3.19850000
H       11.59344941       3.69304494       3.19850000
H        7.59755059       3.69304494       3.19850000
H       10.88793574       2.09481327       3.19850000
H        8.30306426       2.09481327       3.19850000
Pb       6.39700000      19.17796778       0.00000000
I        9.59550000       0.05750307       0.00000000
I        6.39700000       3.16993732       0.00000000
I        6.39700000      19.05538881       3.19850000
C        9.59550000       3.70492338       9.59550000
N       10.76167523       3.10696542       9.59550000
N        8.42932477       3.10696542       9.59550000
H        9.59550000       4.79737454       9.59550000
H       11.59344941       3.69304494       9.59550000
H        7.59755059       3.69304494       9.59550000
H       10.88793574       2.09481327       9.59550000
H        8.30306426       2.09481327       9.59550000
Pb       6.39700000      19.17796778       6.39700000
I        9.59550000       0.05750307       6.39700000
I        6.39700000       3.16993732       6.39700000
I        6.39700000      19.05538881       9.59550000
C        9.59550000       3.70492338      15.99250000
N       10.76167523       3.10696542      15.99250000
N        8.42932477       3.10696542      15.99250000
H        9.59550000       4.79737454      15.99250000
H       11.59344941       3.69304494      15.99250000
H        7.59755059       3.69304494      15.99250000
H       10.88793574       2.09481327      15.99250000
H        8.30306426       2.09481327      15.99250000
Pb       6.39700000      19.17796778      12.79400000
I        9.59550000       0.05750307      12.79400000
I        6.39700000       3.16993732      12.79400000
I        6.39700000      19.05538881      15.99250000
C        9.59550000      10.10192338       3.19850000
N       10.76167523       9.50396542       3.19850000
N        8.42932477       9.50396542       3.19850000
H        9.59550000      11.19437454       3.19850000
H       11.59344941      10.09004494       3.19850000
H        7.59755059      10.09004494       3.19850000
H       10.88793574       8.49181327       3.19850000
H        8.30306426       8.49181327       3.19850000
Pb       6.39700000       6.38396778       0.00000000
I        9.59550000       6.45450307       0.00000000
I        6.39700000       9.56693732       0.00000000
I        6.39700000       6.26138881       3.19850000
C        9.59550000      10.10192338       9.59550000
N       10.76167523       9.50396542       9.59550000
N        8.42932477       9.50396542       9.59550000
H        9.59550000      11.19437454       9.59550000
H       11.59344941      10.09004494       9.59550000
H        7.59755059      10.09004494       9.59550000
H       10.88793574       8.49181327       9.59550000
H        8.30306426       8.49181327       9.59550000
Pb       6.39700000       6.38396778       6.39700000
I        9.59550000       6.45450307       6.39700000
I        6.39700000       9.56693732       6.39700000
I        6.39700000       6.26138881       9.59550000
C        9.59550000      10.10192338      15.99250000
N       10.76167523       9.50396542      15.99250000
N        8.42932477       9.50396542      15.99250000
H        9.59550000      11.19437454      15.99250000
H       11.59344941      10.09004494      15.99250000
H        7.59755059      10.09004494      15.99250000
H       10.88793574       8.49181327      15.99250000
H        8.30306426       8.49181327      15.99250000
Pb       6.39700000       6.38396778      12.79400000
I        9.59550000       6.45450307      12.79400000
I        6.39700000       9.56693732      12.79400000
I        6.39700000       6.26138881      15.99250000
C        9.59550000      16.49892338       3.19850000
N       10.76167523      15.90096542       3.19850000
N        8.42932477      15.90096542       3.19850000
H        9.59550000      17.59137454       3.19850000
H       11.59344941      16.48704494       3.19850000
H        7.59755059      16.48704494       3.19850000
H       10.88793574      14.88881327       3.19850000
H        8.30306426      14.88881327       3.19850000
Pb       6.39700000      12.78096778       0.00000000
I        9.59550000      12.85150307       0.00000000
I        6.39700000      15.96393732       0.00000000
I        6.39700000      12.65838881       3.19850000
C        9.59550000      16.49892338       9.59550000
N       10.76167523      15.90096542       9.59550000
N        8.42932477      15.90096542       9.59550000
H        9.59550000      17.59137454       9.59550000
H       11.59344941      16.48704494       9.59550000
H        7.59755059      16.48704494       9.59550000
H       10.88793574      14.88881327       9.59550000
H        8.30306426      14.88881327       9.59550000
Pb       6.39700000      12.78096778       6.39700000
I        9.59550000      12.85150307       6.39700000
I        6.39700000      15.96393732       6.39700000
I        6.39700000      12.65838881       9.59550000
C        9.59550000      16.49892338      15.99250000
N       10.76167523      15.90096542      15.99250000
N        8.42932477      15.90096542      15.99250000
H        9.59550000      17.59137454      15.99250000
H       11.59344941      16.48704494      15.99250000
H        7.59755059      16.48704494      15.99250000
H       10.88793574      14.88881327      15.99250000
H        8.30306426      14.88881327      15.99250000
Pb       6.39700000      12.78096778      12.79400000
I        9.59550000      12.85150307      12.79400000
I        6.39700000      15.96393732      12.79400000
I        6.39700000      12.65838881      15.99250000
C       15.99250000       3.70492338       3.19850000
N       17.15867523       3.10696542       3.19850000
N       14.82632477       3.10696542       3.19850000
H       15.99250000       4.79737454       3.19850000
H       17.99044941       3.69304494       3.19850000
H       13.99455059       3.69304494       3.19850000
H       17.28493574       2.09481327       3.19850000
H       14.70006426       2.09481327       3.19850000
Pb      12.79400000      19.17796778       0.00000000
I       15.99250000       0.05750307       0.00000000
I       12.79400000       3.16993732       0.00000000
I       12.79400000      19.05538881       3.19850000
C       15.99250000       3.70492338       9.59550000
N       17.15867523       3.10696542       9.59550000
N       14.82632477       3.10696542       9.59550000
H       15.99250000       4.79737454       9.59550000
H       17.99044941       3.69304494       9.59550000
H       13.99455059       3.69304494       9.59550000
H       17.28493574       2.09481327       9.59550000
H       14.70006426       2.09481327       9.59550000
Pb      12.79400000      19.17796778       6.39700000
I       15.99250000       0.05750307       6.39700000
I       12.79400000       3.16993732       6.39700000
I       12.79400000      19.05538881       9.59550000
C       15.99250000       3.70492338      15.99250000
N       17.15867523       3.10696542      15.99250000
N       14.82632477       3.10696542      15.99250000
H       15.99250000       4.79737454      15.99250000
H       17.99044941       3.69304494      15.99250000
H       13.99455059       3.69304494      15.99250000
H       17.28493574       2.09481327      15.99250000
H       14.70006426       2.09481327      15.99250000
Pb      12.79400000      19.17796778      12.79400000
I       15.99250000       0.05750307      12.79400000
I       12.79400000       3.16993732      12.79400000
I       12.79400000      19.05538881      15.99250000
C       15.99250000      10.10192338       3.19850000
N       17.15867523       9.50396542       3.19850000
N       14.82632477       9.50396542       3.19850000
H       15.99250000      11.19437454       3.19850000
H       17.99044941      10.09004494       3.19850000
H       13.99455059      10.09004494       3.19850000
H       17.28493574       8.49181327       3.19850000
H       14.70006426       8.49181327       3.19850000
Pb      12.79400000       6.38396778       0.00000000
I       15.99250000       6.45450307       0.00000000
I       12.79400000       9.56693732       0.00000000
I       12.79400000       6.26138881       3.19850000
C       15.99250000      10.10192338       9.59550000
N       17.15867523       9.50396542       9.59550000
N       14.82632477       9.50396542       9.59550000
H       15.99250000      11.19437454       9.59550000
H       17.99044941      10.09004494       9.59550000
H       13.99455059      10.09004494       9.59550000
H       17.28493574       8.49181327       9.59550000
H       14.70006426       8.49181327       9.59550000
Pb      12.79400000       6.38396778       6.39700000
I       15.99250000       6.45450307       6.39700000
I       12.79400000       9.56693732       6.39700000
I       12.79400000       6.26138881       9.59550000
C       15.99250000      10.10192338      15.99250000
N       17.15867523       9.50396542      15.99250000
N       14.82632477       9.50396542      15.99250000
H       15.99250000      11.19437454      15.99250000
H       17.99044941      10.09004494      15.99250000
H       13.99455059      10.09004494      15.99250000
H       17.28493574       8.49181327      15.99250000
H       14.70006426       8.49181327      15.99250000
Pb      12.79400000       6.38396778      12.79400000
I       15.99250000       6.45450307      12.79400000
I       12.79400000       9.56693732      12.79400000
I       12.79400000       6.26138881      15.99250000
C       15.99250000      16.49892338       3.19850000
N       17.15867523      15.90096542       3.19850000
N       14.82632477      15.90096542       3.19850000
H       15.99250000      17.59137454       3.19850000
H       17.99044941      16.48704494       3.19850000
H       13.99455059      16.48704494       3.19850000
H       17.28493574      14.88881327       3.19850000
H       14.70006426      14.88881327       3.19850000
Pb      12.79400000      12.78096778       0.00000000
I       15.99250000      12.85150307       0.00000000
I       12.79400000      15.96393732       0.00000000
I       12.79400000      12.65838881       3.19850000
C       15.99250000      16.49892338       9.59550000
N       17.15867523      15.90096542       9.59550000
N       14.82632477      15.90096542       9.59550000
H       15.99250000      17.59137454       9.59550000
H       17.99044941      16.48704494       9.59550000
H       13.99455059      16.48704494       9.59550000
H       17.28493574      14.88881327       9.59550000
H       14.70006426      14.88881327       9.59550000
Pb      12.79400000      12.78096778       6.39700000
I       15.99250000      12.85150307       6.39700000
I       12.79400000      15.96393732       6.39700000
I       12.79400000      12.65838881       9.59550000
C       15.99250000      16.49892338      15.99250000
N       17.15867523      15.90096542      15.99250000
N       14.82632477      15.90096542      15.99250000
H       15.99250000      17.59137454      15.99250000
H       17.99044941      16.48704494      15.99250000
H       13.99455059      16.48704494      15.99250000
H       17.28493574      14.88881327      15.99250000
H       14.70006426      14.88881327      15.99250000
Pb      12.79400000      12.78096778      12.79400000
I       15.99250000      12.85150307      12.79400000
I       12.79400000      15.96393732      12.79400000
I       12.79400000      12.65838881      15.99250000
